Circuit: * C:\Users\Noah\Projects\project-powerline\hardware\sim\sensor.asc

Direct Newton iteration for .op point succeeded.

Date: Wed Mar 09 22:10:44 2016
Total elapsed time: 1.000 seconds.

tnom = 27
temp = 27
method = modified trap
totiter = 80021
traniter = 80018
tranpoints = 40010
accept = 24014
rejected = 15996
matrix size = 6
fillins = 0
solver = Normal
Matrix Compiler1: 164 bytes object code size  0.0/0.0/[0.0]
Matrix Compiler2: off  [0.0]/0.0/0.0


