Circuit: * C:\Users\Bastli\Documents\GitHub\project-powerline\hardware\sim\sensor.asc

Direct Newton iteration for .op point succeeded.

Date: Wed Mar 09 14:02:54 2016
Total elapsed time: 0.894 seconds.

tnom = 27
temp = 27
method = modified trap
totiter = 230083
traniter = 230080
tranpoints = 115041
accept = 75554
rejected = 39487
matrix size = 6
fillins = 0
solver = Normal
Matrix Compiler1: off  [0.0]/0.1/0.1
Matrix Compiler2: 368 bytes object code size  0.1/0.1/[0.1]


