Circuit: * Z:\home\yatekii\Projects\project-powerline\hardware\sim\sensor.asc

Direct Newton iteration for .op point succeeded.

Date: Thu Mar 10 13:46:12 2016
Total elapsed time: 0.387 seconds.

tnom = 27
temp = 27
method = modified trap
totiter = 72698
traniter = 72695
tranpoints = 36343
accept = 24586
rejected = 11757
matrix size = 11
fillins = 5
solver = Normal
Matrix Compiler1: 656 bytes object code size  0.6/0.5/[0.3]
Matrix Compiler2: 871 bytes object code size  0.5/0.6/[0.4]


