Circuit: * Z:\home\yatekii\Projects\project-powerline\hardware\supervisor\sim\Draft1.asc

Direct Newton iteration for .op point succeeded.

Date: Thu Apr 21 23:15:30 2016
Total elapsed time: 1.266 seconds.

tnom = 27
temp = 27
method = modified trap
totiter = 403140
traniter = 403131
tranpoints = 156627
accept = 115879
rejected = 40748
matrix size = 8
fillins = 0
solver = Normal
Matrix Compiler1: 300 bytes object code size  0.4/0.3/[0.3]
Matrix Compiler2: off  [0.3]/0.4/0.3


