Circuit: * Z:\home\yatekii\Projects\project-powerline\hardware\supervisor\sim\RX.asc

Per .tran options, skipping operating point for transient analysis.

Date: Thu Apr 21 15:39:00 2016
Total elapsed time: 13.935 seconds.

tnom = 27
temp = 27
method = modified trap
totiter = 2981531
traniter = 2981531
tranpoints = 912610
accept = 706093
rejected = 206517
matrix size = 17
fillins = 0
solver = Normal
Matrix Compiler1: 910 bytes object code size  0.8/0.5/[0.4]
Matrix Compiler2: 1.32 KB object code size  0.4/0.5/[0.4]


